Circuit: * D:\Sarbach_Product dev\Gassensor-garage\Gas-sens_Rs-485\Simulations\LTSpice-OpAmp\Draft1.asc

Limiting fall time of source v2 to 9.71445e-18
Direct Newton iteration for .op point succeeded.

Date: Tue Aug  8 20:52:57 2023
Total elapsed time: 1.639 seconds.

tnom = 27
temp = 27
method = modified trap
totiter = 400437
traniter = 400433
tranpoints = 200024
accept = 200022
rejected = 2
matrix size = 7
fillins = 0
solver = Normal
Avg thread counts: 1.0/1.0/1.0/1.0
Matrix Compiler1:       9 opcodes  0.2/[0.2]/0.2
Matrix Compiler2: 319 bytes object code size  0.1/0.3/[0.1]

