Circuit: * D:\Sarbach_Product dev\Gassensor-garage\Gas-sens_Rs-485\Simulations\Draft1.asc

Direct Newton iteration failed to find .op point.  (Use ".option noopiter" to skip.)
Starting Gmin stepping
Gmin = 10
Gmin = 1.07374
Gmin = 0.115292
Gmin = 0.0123794
vernier = 0.5
Gmin = 0.00207692
vernier = 0.25
vernier = 0.125
vernier = 0.0625
Gmin = 0.00173555
vernier = 0.03125
vernier = 0.015625
vernier = 0.0078125
vernier = 0.00390625
Gmin = 0.00175067
vernier = 0.00195312
vernier = 0.000976562
vernier = 0.000488281
Gmin = 0
Gmin stepping failed

Starting source stepping with srcstepmethod=0
Could not converge to DC with sources off!
Starting source stepping with srcstepmethod=1
Could not converge to DC with sources off!
Pseudo Transient failed in finding the operating point at 28.7226 ms.
Trouble finding operating point....skipping operating point for Transient analysis.
to 1.95313e-10

Date: Sun Jan  7 10:11:38 2024
Total elapsed time: 0.139 seconds.

tnom = 27
temp = 27
method = modified trap
totiter = 10366
traniter = 2096
tranpoints = 1039
accept = 1039
rejected = 170
matrix size = 9
fillins = 4
solver = Normal
Avg thread counts: 2.3/3.6/3.6/2.3
Matrix Compiler1: 502 bytes object code size  0.1/0.1/[0.1]
Matrix Compiler2: 675 bytes object code size  0.2/0.3/[0.2]

